FoamFile
{
    version     2.0;
    format      ascii;
    class       dictionary;
    location    "constant/solid";
    object      thermophysicalProperties;
}

thermoType
{
    type            heSolidThermo;
    mixture         pureMixture;
    transport       constIso;
    thermo          hConst;
    equationOfState rhoConst;
    specie          specie;
    energy          sensibleEnthalpy;
}

mixture
{
    specie
    {
        molWeight   26.98;
    }
    transport
    {
        kappa       205;        // W/(m·K) — aluminium 6061
    }
    thermodynamics
    {
        Cp          897;        // J/(kg·K)
        Hf          0;
    }
    equationOfState
    {
        rho         2700;       // kg/m3
    }
}
